
Note: No compatibility mode selected!


Circuit: * subthreshold cmos cross-coupled lc-dco with cap bank + current dac

Doing analysis at TEMP = 27.000000 and TNOM = 27.000000

Using SPARSE 1.3 as Direct Linear Solver
Operating point simulation skipped by 'uic',
  now using transient initial conditions.
 Reference value :  2.00000e-14 Reference value :  1.82544e-10 Reference value :  4.30544e-10 Reference value :  6.86544e-10 Reference value :  1.00254e-09 Reference value :  1.34854e-09 Reference value :  1.70454e-09 Reference value :  2.01654e-09 Reference value :  2.34854e-09 Reference value :  2.67054e-09 Reference value :  2.99254e-09 Reference value :  3.27254e-09 Reference value :  3.63654e-09 Reference value :  3.99454e-09 Reference value :  4.32054e-09 Reference value :  4.64854e-09 Reference value :  5.00054e-09 Reference value :  5.32854e-09 Reference value :  5.69454e-09 Reference value :  6.04654e-09 Reference value :  6.42054e-09 Reference value :  6.81054e-09 Reference value :  7.21654e-09 Reference value :  7.60254e-09 Reference value :  7.97454e-09 Reference value :  8.37454e-09 Reference value :  8.75054e-09 Reference value :  9.12654e-09 Reference value :  9.52054e-09 Reference value :  9.93454e-09 Reference value :  1.03645e-08 Reference value :  1.07945e-08 Reference value :  1.11885e-08 Reference value :  1.15865e-08 Reference value :  1.20245e-08 Reference value :  1.24125e-08 Reference value :  1.28145e-08 Reference value :  1.32345e-08 Reference value :  1.36465e-08 Reference value :  1.40265e-08 Reference value :  1.44565e-08 Reference value :  1.48745e-08 Reference value :  1.52745e-08 Reference value :  1.56905e-08 Reference value :  1.60565e-08 Reference value :  1.64205e-08 Reference value :  1.68105e-08 Reference value :  1.71805e-08 Reference value :  1.75505e-08 Reference value :  1.79645e-08 Reference value :  1.83745e-08 Reference value :  1.87805e-08 Reference value :  1.91705e-08 Reference value :  1.95805e-08 Reference value :  1.99825e-08 Reference value :  2.03645e-08 Reference value :  2.07665e-08 Reference value :  2.11545e-08 Reference value :  2.14825e-08 Reference value :  2.18665e-08 Reference value :  2.22465e-08 Reference value :  2.26645e-08 Reference value :  2.31025e-08 Reference value :  2.35145e-08 Reference value :  2.39465e-08 Reference value :  2.44105e-08 Reference value :  2.48285e-08 Reference value :  2.52105e-08 Reference value :  2.55845e-08 Reference value :  2.59765e-08 Reference value :  2.63605e-08 Reference value :  2.67625e-08 Reference value :  2.71685e-08 Reference value :  2.76045e-08 Reference value :  2.80205e-08 Reference value :  2.84565e-08 Reference value :  2.88525e-08 Reference value :  2.92465e-08 Reference value :  2.96445e-08 Reference value :  3.00465e-08 Reference value :  3.04465e-08 Reference value :  3.08605e-08 Reference value :  3.12705e-08 Reference value :  3.16605e-08 Reference value :  3.20685e-08 Reference value :  3.24905e-08 Reference value :  3.28785e-08 Reference value :  3.32425e-08 Reference value :  3.36165e-08 Reference value :  3.40245e-08 Reference value :  3.44025e-08 Reference value :  3.47865e-08 Reference value :  3.51685e-08 Reference value :  3.55545e-08 Reference value :  3.59465e-08 Reference value :  3.63205e-08 Reference value :  3.67465e-08 Reference value :  3.71325e-08 Reference value :  3.75225e-08 Reference value :  3.79185e-08 Reference value :  3.83325e-08 Reference value :  3.87305e-08 Reference value :  3.90865e-08 Reference value :  3.94905e-08 Reference value :  3.98945e-08 Reference value :  4.02545e-08 Reference value :  4.05205e-08 Reference value :  4.08365e-08 Reference value :  4.10765e-08 Reference value :  4.14025e-08 Reference value :  4.17525e-08 Reference value :  4.20565e-08 Reference value :  4.22885e-08 Reference value :  4.24765e-08 Reference value :  4.27085e-08 Reference value :  4.30185e-08 Reference value :  4.33285e-08 Reference value :  4.36625e-08 Reference value :  4.39345e-08 Reference value :  4.42105e-08 Reference value :  4.44525e-08 Reference value :  4.47205e-08 Reference value :  4.49545e-08 Reference value :  4.52465e-08 Reference value :  4.55025e-08 Reference value :  4.58765e-08 Reference value :  4.62405e-08 Reference value :  4.65685e-08 Reference value :  4.69045e-08 Reference value :  4.72625e-08 Reference value :  4.75865e-08 Reference value :  4.79185e-08 Reference value :  4.82805e-08 Reference value :  4.86165e-08 Reference value :  4.89205e-08 Reference value :  4.92505e-08 Reference value :  4.95305e-08 Reference value :  4.98805e-08 Reference value :  5.02065e-08 Reference value :  5.05725e-08 Reference value :  5.09025e-08 Reference value :  5.12205e-08 Reference value :  5.15765e-08 Reference value :  5.18365e-08 Reference value :  5.21125e-08 Reference value :  5.23865e-08 Reference value :  5.26905e-08 Reference value :  5.29665e-08 Reference value :  5.32025e-08 Reference value :  5.34205e-08 Reference value :  5.36865e-08 Reference value :  5.39125e-08 Reference value :  5.41925e-08 Reference value :  5.43965e-08 Reference value :  5.46865e-08 Reference value :  5.49345e-08 Reference value :  5.51245e-08 Reference value :  5.52865e-08 Reference value :  5.55705e-08 Reference value :  5.57505e-08 Reference value :  5.60405e-08 Reference value :  5.63325e-08 Reference value :  5.65705e-08 Reference value :  5.67725e-08 Reference value :  5.70745e-08 Reference value :  5.73725e-08 Reference value :  5.76885e-08 Reference value :  5.79865e-08 Reference value :  5.83085e-08 Reference value :  5.85585e-08 Reference value :  5.88765e-08 Reference value :  5.90805e-08 Reference value :  5.93505e-08 Reference value :  5.96585e-08 Reference value :  5.99885e-08 Reference value :  6.02705e-08 Reference value :  6.05225e-08 Reference value :  6.07705e-08 Reference value :  6.09865e-08 Reference value :  6.12465e-08 Reference value :  6.15385e-08 Reference value :  6.18505e-08 Reference value :  6.21845e-08 Reference value :  6.25585e-08 Reference value :  6.28885e-08 Reference value :  6.31985e-08 Reference value :  6.34985e-08 Reference value :  6.38285e-08 Reference value :  6.41785e-08 Reference value :  6.45025e-08 Reference value :  6.48245e-08 Reference value :  6.51925e-08 Reference value :  6.55305e-08 Reference value :  6.58605e-08 Reference value :  6.61685e-08 Reference value :  6.65685e-08 Reference value :  6.69065e-08 Reference value :  6.72125e-08 Reference value :  6.75045e-08 Reference value :  6.78445e-08 Reference value :  6.81285e-08 Reference value :  6.84125e-08 Reference value :  6.87285e-08 Reference value :  6.90525e-08 Reference value :  6.91965e-08 Reference value :  6.95345e-08 Reference value :  6.98825e-08 Reference value :  7.02185e-08 Reference value :  7.04965e-08 Reference value :  7.07865e-08 Reference value :  7.10605e-08 Reference value :  7.13685e-08 Reference value :  7.16545e-08 Reference value :  7.19665e-08 Reference value :  7.22985e-08 Reference value :  7.26025e-08 Reference value :  7.28585e-08 Reference value :  7.31805e-08 Reference value :  7.34825e-08 Reference value :  7.37785e-08 Reference value :  7.41085e-08 Reference value :  7.44445e-08 Reference value :  7.47785e-08 Reference value :  7.51345e-08 Reference value :  7.54625e-08 Reference value :  7.57885e-08 Reference value :  7.60905e-08 Reference value :  7.64085e-08 Reference value :  7.67025e-08 Reference value :  7.69325e-08 Reference value :  7.72405e-08 Reference value :  7.75445e-08 Reference value :  7.78485e-08 Reference value :  7.81445e-08 Reference value :  7.84805e-08 Reference value :  7.88025e-08 Reference value :  7.91185e-08 Reference value :  7.94465e-08 Reference value :  7.97945e-08 Reference value :  8.01145e-08 Reference value :  8.05005e-08 Reference value :  8.08165e-08 Reference value :  8.11105e-08 Reference value :  8.14465e-08 Reference value :  8.17745e-08 Reference value :  8.20885e-08 Reference value :  8.24205e-08 Reference value :  8.27665e-08 Reference value :  8.31145e-08 Reference value :  8.35105e-08 Reference value :  8.38925e-08 Reference value :  8.42525e-08 Reference value :  8.46625e-08 Reference value :  8.50305e-08 Reference value :  8.54165e-08 Reference value :  8.57765e-08 Reference value :  8.61625e-08 Reference value :  8.65705e-08 Reference value :  8.67905e-08 Reference value :  8.71005e-08 Reference value :  8.74445e-08 Reference value :  8.78165e-08 Reference value :  8.82005e-08 Reference value :  8.85865e-08 Reference value :  8.89505e-08 Reference value :  8.93285e-08 Reference value :  8.97045e-08 Reference value :  9.00025e-08 Reference value :  9.03125e-08 Reference value :  9.06705e-08 Reference value :  9.10705e-08 Reference value :  9.14145e-08 Reference value :  9.18085e-08 Reference value :  9.21585e-08 Reference value :  9.25365e-08 Reference value :  9.29725e-08 Reference value :  9.34005e-08 Reference value :  9.38265e-08 Reference value :  9.42305e-08 Reference value :  9.46245e-08 Reference value :  9.50285e-08 Reference value :  9.54345e-08 Reference value :  9.58505e-08 Reference value :  9.62585e-08 Reference value :  9.66845e-08 Reference value :  9.71245e-08 Reference value :  9.75365e-08 Reference value :  9.79325e-08 Reference value :  9.83265e-08 Reference value :  9.87285e-08 Reference value :  9.90885e-08 Reference value :  9.94985e-08 Reference value :  9.98905e-08 Reference value :  1.00319e-07 Reference value :  1.00721e-07 Reference value :  1.01111e-07 Reference value :  1.01503e-07 Reference value :  1.01889e-07 Reference value :  1.02253e-07 Reference value :  1.02639e-07 Reference value :  1.03013e-07 Reference value :  1.03429e-07 Reference value :  1.03831e-07 Reference value :  1.04257e-07 Reference value :  1.04631e-07 Reference value :  1.05079e-07 Reference value :  1.05521e-07 Reference value :  1.05953e-07 Reference value :  1.06351e-07 Reference value :  1.06727e-07 Reference value :  1.07105e-07 Reference value :  1.07509e-07 Reference value :  1.07915e-07 Reference value :  1.08243e-07 Reference value :  1.08623e-07 Reference value :  1.08983e-07 Reference value :  1.09331e-07 Reference value :  1.09687e-07 Reference value :  1.10061e-07 Reference value :  1.10445e-07 Reference value :  1.10775e-07 Reference value :  1.11117e-07 Reference value :  1.11479e-07 Reference value :  1.11805e-07 Reference value :  1.12151e-07 Reference value :  1.12541e-07 Reference value :  1.12881e-07 Reference value :  1.13251e-07 Reference value :  1.13579e-07 Reference value :  1.13915e-07 Reference value :  1.14277e-07 Reference value :  1.14645e-07 Reference value :  1.14977e-07 Reference value :  1.15325e-07 Reference value :  1.15671e-07 Reference value :  1.15997e-07 Reference value :  1.16353e-07 Reference value :  1.16687e-07 Reference value :  1.17025e-07 Reference value :  1.17427e-07 Reference value :  1.17749e-07 Reference value :  1.18113e-07 Reference value :  1.18481e-07 Reference value :  1.18849e-07 Reference value :  1.19157e-07 Reference value :  1.19449e-07 Reference value :  1.19773e-07 Reference value :  1.20105e-07 Reference value :  1.20389e-07 Reference value :  1.20697e-07 Reference value :  1.20965e-07 Reference value :  1.21151e-07 Reference value :  1.21455e-07 Reference value :  1.21793e-07 Reference value :  1.22091e-07 Reference value :  1.22421e-07 Reference value :  1.22779e-07 Reference value :  1.23105e-07 Reference value :  1.23429e-07 Reference value :  1.23799e-07 Reference value :  1.24129e-07 Reference value :  1.24495e-07 Reference value :  1.24817e-07 Reference value :  1.25135e-07 Reference value :  1.25483e-07 Reference value :  1.25839e-07 Reference value :  1.26149e-07 Reference value :  1.26431e-07 Reference value :  1.26679e-07 Reference value :  1.26985e-07 Reference value :  1.27311e-07 Reference value :  1.27607e-07 Reference value :  1.27845e-07 Reference value :  1.27977e-07 Reference value :  1.28143e-07 Reference value :  1.28387e-07 Reference value :  1.28723e-07 Reference value :  1.29059e-07 Reference value :  1.29383e-07 Reference value :  1.29739e-07 Reference value :  1.30087e-07 Reference value :  1.30249e-07 Reference value :  1.30479e-07 Reference value :  1.30671e-07 Reference value :  1.30981e-07 Reference value :  1.31325e-07 Reference value :  1.31677e-07 Reference value :  1.31981e-07 Reference value :  1.32303e-07 Reference value :  1.32565e-07 Reference value :  1.32919e-07 Reference value :  1.33247e-07 Reference value :  1.33595e-07 Reference value :  1.33941e-07 Reference value :  1.34275e-07 Reference value :  1.34621e-07 Reference value :  1.34951e-07 Reference value :  1.35289e-07 Reference value :  1.35639e-07 Reference value :  1.36017e-07 Reference value :  1.36367e-07 Reference value :  1.36747e-07 Reference value :  1.37093e-07 Reference value :  1.37371e-07 Reference value :  1.37593e-07 Reference value :  1.37883e-07 Reference value :  1.38173e-07 Reference value :  1.38485e-07 Reference value :  1.38821e-07 Reference value :  1.39139e-07 Reference value :  1.39423e-07 Reference value :  1.39751e-07 Reference value :  1.40051e-07 Reference value :  1.40337e-07 Reference value :  1.40611e-07 Reference value :  1.40865e-07 Reference value :  1.41173e-07 Reference value :  1.41475e-07 Reference value :  1.41799e-07 Reference value :  1.42139e-07 Reference value :  1.42413e-07 Reference value :  1.42687e-07 Reference value :  1.43051e-07 Reference value :  1.43387e-07 Reference value :  1.43773e-07 Reference value :  1.43979e-07 Reference value :  1.44335e-07 Reference value :  1.44725e-07 Reference value :  1.45091e-07 Reference value :  1.45493e-07 Reference value :  1.45887e-07 Reference value :  1.46291e-07 Reference value :  1.46591e-07 Reference value :  1.46965e-07 Reference value :  1.47235e-07 Reference value :  1.47521e-07 Reference value :  1.47881e-07 Reference value :  1.48117e-07 Reference value :  1.48201e-07 Reference value :  1.48437e-07 Reference value :  1.48635e-07 Reference value :  1.48863e-07 Reference value :  1.49087e-07 Reference value :  1.49287e-07 Reference value :  1.49537e-07 Reference value :  1.49799e-07 Reference value :  1.50103e-07 Reference value :  1.50377e-07 Reference value :  1.50593e-07 Reference value :  1.50831e-07 Reference value :  1.51009e-07 Reference value :  1.51211e-07 Reference value :  1.51341e-07 Reference value :  1.51551e-07 Reference value :  1.51679e-07 Reference value :  1.51809e-07 Reference value :  1.51981e-07 Reference value :  1.52165e-07 Reference value :  1.52369e-07 Reference value :  1.52469e-07 Reference value :  1.52543e-07 Reference value :  1.52753e-07 Reference value :  1.52911e-07 Reference value :  1.52935e-07 Reference value :  1.52955e-07 Reference value :  1.53015e-07 Reference value :  1.53101e-07 Reference value :  1.53145e-07 Reference value :  1.53209e-07 Reference value :  1.53319e-07 Reference value :  1.53403e-07 Reference value :  1.53699e-07 Reference value :  1.54041e-07 Reference value :  1.54229e-07 Reference value :  1.54467e-07 Reference value :  1.54795e-07 Reference value :  1.55069e-07 Reference value :  1.55357e-07 Reference value :  1.55677e-07 Reference value :  1.56015e-07 Reference value :  1.56329e-07 Reference value :  1.56631e-07 Reference value :  1.56965e-07 Reference value :  1.57313e-07 Reference value :  1.57657e-07 Reference value :  1.58001e-07 Reference value :  1.58331e-07 Reference value :  1.58695e-07 Reference value :  1.58995e-07 Reference value :  1.59301e-07 Reference value :  1.59647e-07 Reference value :  1.59957e-07 Reference value :  1.60297e-07 Reference value :  1.60615e-07 Reference value :  1.60901e-07 Reference value :  1.61193e-07 Reference value :  1.61439e-07 Reference value :  1.61721e-07 Reference value :  1.62001e-07 Reference value :  1.62225e-07 Reference value :  1.62453e-07 Reference value :  1.62641e-07 Reference value :  1.62861e-07 Reference value :  1.63049e-07 Reference value :  1.63199e-07 Reference value :  1.63453e-07 Reference value :  1.63459e-07 Reference value :  1.63587e-07 Reference value :  1.63725e-07 Reference value :  1.63789e-07 Reference value :  1.63845e-07 Reference value :  1.63851e-07 Reference value :  1.64093e-07 Reference value :  1.64297e-07 Reference value :  1.64343e-07 Reference value :  1.64493e-07 Reference value :  1.64735e-07 Reference value :  1.64787e-07 Reference value :  1.64985e-07 Reference value :  1.65119e-07 Reference value :  1.65295e-07 Reference value :  1.65471e-07 Reference value :  1.65619e-07 Reference value :  1.65907e-07 Reference value :  1.66167e-07 Reference value :  1.66453e-07 Reference value :  1.66783e-07 Reference value :  1.66987e-07 Reference value :  1.67219e-07 Reference value :  1.67469e-07 Reference value :  1.67691e-07 Reference value :  1.67905e-07 Reference value :  1.68149e-07 Reference value :  1.68471e-07 Reference value :  1.68763e-07 Reference value :  1.68991e-07 Reference value :  1.69195e-07 Reference value :  1.69391e-07 Reference value :  1.69689e-07 Reference value :  1.70011e-07 Reference value :  1.70341e-07 Reference value :  1.70645e-07 Reference value :  1.70993e-07 Reference value :  1.71357e-07 Reference value :  1.71753e-07 Reference value :  1.72137e-07 Reference value :  1.72489e-07 Reference value :  1.72809e-07 Reference value :  1.73183e-07 Reference value :  1.73565e-07 Reference value :  1.73927e-07 Reference value :  1.74275e-07 Reference value :  1.74581e-07 Reference value :  1.74829e-07 Reference value :  1.74837e-07 Reference value :  1.75063e-07 Reference value :  1.75387e-07 Reference value :  1.75729e-07 Reference value :  1.76071e-07 Reference value :  1.76403e-07 Reference value :  1.76737e-07 Reference value :  1.77101e-07 Reference value :  1.77409e-07 Reference value :  1.77723e-07 Reference value :  1.78031e-07 Reference value :  1.78307e-07 Reference value :  1.78635e-07 Reference value :  1.78999e-07 Reference value :  1.79379e-07 Reference value :  1.79729e-07 Reference value :  1.80085e-07 Reference value :  1.80419e-07 Reference value :  1.80791e-07 Reference value :  1.81163e-07 Reference value :  1.81539e-07 Reference value :  1.81921e-07 Reference value :  1.82259e-07 Reference value :  1.82511e-07 Reference value :  1.82681e-07 Reference value :  1.82913e-07 Reference value :  1.83219e-07 Reference value :  1.83529e-07 Reference value :  1.83911e-07 Reference value :  1.84229e-07 Reference value :  1.84511e-07 Reference value :  1.84877e-07 Reference value :  1.85267e-07 Reference value :  1.85603e-07 Reference value :  1.85935e-07 Reference value :  1.86301e-07 Reference value :  1.86625e-07 Reference value :  1.86979e-07 Reference value :  1.87337e-07 Reference value :  1.87711e-07 Reference value :  1.88107e-07 Reference value :  1.88467e-07 Reference value :  1.88851e-07 Reference value :  1.89191e-07 Reference value :  1.89539e-07 Reference value :  1.89905e-07 Reference value :  1.90295e-07 Reference value :  1.90633e-07 Reference value :  1.90993e-07 Reference value :  1.91393e-07 Reference value :  1.91737e-07 Reference value :  1.92107e-07 Reference value :  1.92493e-07 Reference value :  1.92803e-07 Reference value :  1.93177e-07 Reference value :  1.93529e-07 Reference value :  1.93789e-07 Reference value :  1.94151e-07 Reference value :  1.94443e-07 Reference value :  1.94795e-07 Reference value :  1.95115e-07 Reference value :  1.95467e-07 Reference value :  1.95757e-07 Reference value :  1.96097e-07 Reference value :  1.96459e-07 Reference value :  1.96867e-07 Reference value :  1.97219e-07 Reference value :  1.97533e-07 Reference value :  1.97859e-07 Reference value :  1.98189e-07 Reference value :  1.98485e-07 Reference value :  1.98821e-07 Reference value :  1.99109e-07 Reference value :  1.99429e-07 Reference value :  1.99775e-07
No. of Data Rows : 100020
=============================================
LC-DCO Phase 2 — Current DAC Results
=============================================
v_max               =  7.12511e-01 at=  2.00000e-07
v_min               =  7.01712e-01 at=  1.50001e-07
V_swing [V]:
v_swing = 1.079880e-02
i_vdd               =  -1.05482e-04 from=  1.50000e-07 to=  2.00000e-07
P_dc [uW]:
p_dc_uw = 1.265786e+02
vs_avg              =  1.20001e+00 from=  1.50000e-07 to=  2.00000e-07
V(vs) avg [V]:
vs_avg = 1.200010e+00
Waveform saved.
ngspice-46+ done
